voltage-tiling/data/p13u_violations/p13uhs5_1247--p13udt7430/Lines.dss
New Line.l(r:p13udt1315lv-p13ulv3440) Units=km Length=0.0098279 bus1=p13udt1315lv.1.2 bus2=p13ulv3440.1.2 switch=n enabled=y phases=2 Linecode=1P_OH_AL_2/0_Rucina_2

New Line.l(r:p13udm5693-p13ulv3471) Units=km Length=0.0120517 bus1=p13udm5693.1.2 bus2=p13ulv3471.1.2 switch=n enabled=y phases=2 Linecode=1P_OH_AL_2/0_Rucina_2_7

New Line.l(r:p13udm5693-p13udt1315lv) Units=km Length=0.0160201 bus1=p13udt1315lv.1.2 bus2=p13udm5693.1.2 switch=n enabled=y phases=2 Linecode=1P_OH_AL_2/0_Rucina_2_7

New Line.l(r:p13udt1316lv-p13ulv3465) Units=km Length=0.0166845 bus1=p13udt1316lv.1.2 bus2=p13ulv3465.1.2 switch=n enabled=y phases=2 Linecode=1P_OH_AL_2/0_Rucina_2

New Line.l(r:p13udm5694-p13ulv3441) Units=km Length=0.009820020000000002 bus1=p13udm5694.1.2 bus2=p13ulv3441.1.2 switch=n enabled=y phases=2 Linecode=1P_OH_AL_2/0_Rucina_2

New Line.l(r:p13udm5694-p13udt1316lv) Units=km Length=0.0184202 bus1=p13udt1316lv.1.2 bus2=p13udm5694.1.2 switch=n enabled=y phases=2 Linecode=1P_OH_AL_2/0_Rucina_2

New Line.l(r:p13udm5696-p13ulv3466) Units=km Length=0.018031300000000004 bus1=p13udm5696.1.2 bus2=p13ulv3466.1.2 switch=n enabled=y phases=2 Linecode=1P_OH_AL_2/0_Rucina_2

New Line.l(r:p13udm5696-p13ulv90903) Units=km Length=0.010317 bus1=p13udm5696.1.2 bus2=p13ulv90903.1.2 switch=n enabled=y phases=2 Linecode=1P_OH_AL_2/0_Rucina_2

New Line.l(r:p13udm5696-p13udt1316lv) Units=km Length=0.0184302 bus1=p13udt1316lv.1.2 bus2=p13udm5696.1.2 switch=n enabled=y phases=2 Linecode=1P_OH_AL_2/0_Rucina_2

New Line.l(r:p13udm5702-p13ulv3446) Units=km Length=0.0134629 bus1=p13udm5702.1.2 bus2=p13ulv3446.1.2 switch=n enabled=y phases=2 Linecode=1P_OH_AL_2/0_Rucina_2

New Line.l(r:p13udm5702-p13ulv3452) Units=km Length=0.0131093 bus1=p13udm5702.1.2 bus2=p13ulv3452.1.2 switch=n enabled=y phases=2 Linecode=1P_OH_AL_2/0_Rucina_2

New Line.l(r:p13udm5702-p13udt1320lv) Units=km Length=0.0184802 bus1=p13udt1320lv.1.2 bus2=p13udm5702.1.2 switch=n enabled=y phases=2 Linecode=1P_OH_AL_2/0_Rucina_2_7

New Line.l(r:p13udm5704-p13ulv90973) Units=km Length=0.0142142 bus1=p13udm5704.1.2 bus2=p13ulv90973.1.2 switch=n enabled=y phases=2 Linecode=1P_OH_AL_2/0_Rucina_2

New Line.l(r:p13udm5704-p13udt1320lv) Units=km Length=0.0184702 bus1=p13udt1320lv.1.2 bus2=p13udm5704.1.2 switch=n enabled=y phases=2 Linecode=1P_OH_AL_2/0_Rucina_2

New Line.l(r:p13udt1321lv-p13ulv89064) Units=km Length=0.00801359 bus1=p13udt1321lv.1.2 bus2=p13ulv89064.1.2 switch=n enabled=y phases=2 Linecode=1P_UG_AL_1/0_Brenau_2

New Line.l(r:p13udt1321lv-p13ulv94070) Units=km Length=0.0136615 bus1=p13udt1321lv.1.2 bus2=p13ulv94070.1.2 switch=n enabled=y phases=2 Linecode=1P_UG_AL_1/0_Brenau_2

New Line.l(r:p13udm5705-p13ulv3447) Units=km Length=0.011823600000000002 bus1=p13udm5705.1.2 bus2=p13ulv3447.1.2 switch=n enabled=y phases=2 Linecode=1P_UG_AL_1/0_Brenau_2

New Line.l(r:p13udm5705-p13ulv94136) Units=km Length=0.011511 bus1=p13udm5705.1.2 bus2=p13ulv94136.1.2 switch=n enabled=y phases=2 Linecode=1P_UG_AL_1/0_Brenau_2

New Line.l(r:p13udm5705-p13udt1321lv) Units=km Length=0.0187001 bus1=p13udt1321lv.1.2 bus2=p13udm5705.1.2 switch=n enabled=y phases=2 Linecode=1P_UG_AL_4/0_Sweetbriar_2

New Line.l(r:p13udm5706-p13ulv15833) Units=km Length=0.009085640000000002 bus1=p13udm5706.1.2 bus2=p13ulv15833.1.2 switch=n enabled=y phases=2 Linecode=1P_UG_AL_4/0_Sweetbriar_2

New Line.l(r:p13udm5706-p13udt1321lv) Units=km Length=0.0187001 bus1=p13udt1321lv.1.2 bus2=p13udm5706.1.2 switch=n enabled=y phases=2 Linecode=1P_UG_AL_4/0_Sweetbriar_2

New Line.l(r:p13udm5710-p13ulv3448) Units=km Length=0.0112094 bus1=p13udm5710.1.2 bus2=p13ulv3448.1.2 switch=n enabled=y phases=2 Linecode=1P_UG_AL_1/0_Brenau_2

New Line.l(r:p13udm5710-p13ulv109060) Units=km Length=0.0131069 bus1=p13udm5710.1.2 bus2=p13ulv109060.1.2 switch=n enabled=y phases=2 Linecode=1P_UG_AL_4/0_Sweetbriar_2

New Line.l(r:p13udm5710-p13udt1322lv) Units=km Length=0.00984 bus1=p13udt1322lv.1.2 bus2=p13udm5710.1.2 switch=n enabled=y phases=2 Linecode=1P_UG_AL_4/0_Sweetbriar_2

New Line.l(r:p13udm5711-p13ulv89085) Units=km Length=0.0110908 bus1=p13udm5711.1.2 bus2=p13ulv89085.1.2 switch=n enabled=y phases=2 Linecode=1P_UG_AL_2/0_Converse_2

New Line.l(r:p13udm5711-p13ulv89135) Units=km Length=0.0131097 bus1=p13udm5711.1.2 bus2=p13ulv89135.1.2 switch=n enabled=y phases=2 Linecode=1P_UG_AL_2/0_Converse_2

New Line.l(r:p13udm5711-p13udt1322lv) Units=km Length=0.00984 bus1=p13udt1322lv.1.2 bus2=p13udm5711.1.2 switch=n enabled=y phases=2 Linecode=1P_UG_AL_4/0_Sweetbriar_2

New Line.l(r:p13udt1324lv-p13ulv89067) Units=km Length=0.040764 bus1=p13udt1324lv.1.2 bus2=p13ulv89067.1.2 switch=n enabled=y phases=2 Linecode=1P_OH_AL_4/0_Zuzara_2

New Line.l(r:p13udm5721-p13ulv3450) Units=km Length=0.0155643 bus1=p13udm5721.1.2 bus2=p13ulv3450.1.2 switch=n enabled=y phases=2 Linecode=1P_OH_AL_2/0_Rucina_2

New Line.l(r:p13udm5721-p13ulv89062) Units=km Length=0.0362708 bus1=p13udm5721.1.2 bus2=p13ulv89062.1.2 switch=n enabled=y phases=2 Linecode=1P_OH_AL_4/0_Zuzara_2

New Line.l(r:p13udm5721-p13ulv90935) Units=km Length=0.0159531 bus1=p13udm5721.1.2 bus2=p13ulv90935.1.2 switch=n enabled=y phases=2 Linecode=1P_OH_AL_2/0_Rucina_2

New Line.l(r:p13udm5721-p13udt1324lv) Units=km Length=0.0184802 bus1=p13udt1324lv.1.2 bus2=p13udm5721.1.2 switch=n enabled=y phases=2 Linecode=1P_OH_AL_2/0_Rucina_2_7

New Line.l(r:p13udm5725-p13ulv90948) Units=km Length=0.0176023 bus1=p13udm5725.1.2 bus2=p13ulv90948.1.2 switch=n enabled=y phases=2 Linecode=1P_OH_AL_2/0_Rucina_2

New Line.l(r:p13udm5725-p13udt1324lv) Units=km Length=0.0184802 bus1=p13udt1324lv.1.2 bus2=p13udm5725.1.2 switch=n enabled=y phases=2 Linecode=1P_OH_AL_2/0_Rucina_2

New Line.l(r:p13udt1325lv-p13ulv89045) Units=km Length=0.0159211 bus1=p13udt1325lv.1.2 bus2=p13ulv89045.1.2 switch=n enabled=y phases=2 Linecode=1P_OH_AL_2/0_Rucina_2

New Line.l(r:p13udt1325lv-p13ulv89046) Units=km Length=0.0151301 bus1=p13udt1325lv.1.2 bus2=p13ulv89046.1.2 switch=n enabled=y phases=2 Linecode=1P_OH_AL_2/0_Rucina_2

New Line.l(r:p13udt1325lv-p13ulv90946) Units=km Length=0.0188684 bus1=p13udt1325lv.1.2 bus2=p13ulv90946.1.2 switch=n enabled=y phases=2 Linecode=1P_OH_AL_2/0_Rucina_2

New Line.l(r:p13udm5726-p13ulv3451) Units=km Length=0.0154791 bus1=p13udm5726.1.2 bus2=p13ulv3451.1.2 switch=n enabled=y phases=2 Linecode=1P_OH_AL_2/0_Rucina_2

New Line.l(r:p13udm5726-p13ulv90943) Units=km Length=0.016610500000000004 bus1=p13udm5726.1.2 bus2=p13ulv90943.1.2 switch=n enabled=y phases=2 Linecode=1P_OH_AL_2/0_Rucina_2

New Line.l(r:p13udm5726-p13udt1325lv) Units=km Length=0.0184802 bus1=p13udt1325lv.1.2 bus2=p13udm5726.1.2 switch=n enabled=y phases=2 Linecode=1P_OH_AL_2/0_Rucina_2

New Line.l(r:p13udt1326lv-p13ulv15837) Units=km Length=0.00991789 bus1=p13udt1326lv.1.2 bus2=p13ulv15837.1.2 switch=n enabled=y phases=2 Linecode=1P_UG_AL_1/0_Brenau_2

New Line.l(r:p13udt1326lv-p13ulv89063) Units=km Length=0.0247652 bus1=p13udt1326lv.1.2 bus2=p13ulv89063.1.2 switch=n enabled=y phases=2 Linecode=1P_UG_AL_1/0_Brenau_2

New Line.l(r:p13udm5731-p13ulv3453) Units=km Length=0.007464190000000001 bus1=p13udm5731.1.2 bus2=p13ulv3453.1.2 switch=n enabled=y phases=2 Linecode=1P_UG_AL_4/0_Sweetbriar_2

New Line.l(r:p13udm5731-p13udt1326lv) Units=km Length=0.00935002 bus1=p13udt1326lv.1.2 bus2=p13udm5731.1.2 switch=n enabled=y phases=2 Linecode=1P_UG_AL_4/0_Sweetbriar_2

New Line.l(r:p13udm5734-p13ulv89068) Units=km Length=0.0352356 bus1=p13udm5734.1.2 bus2=p13ulv89068.1.2 switch=n enabled=y phases=2 Linecode=1P_UG_AL_1/0_Brenau_2

New Line.l(r:p13udm5735-p13ulv89072) Units=km Length=0.0115239 bus1=p13udm5735.1.2 bus2=p13ulv89072.1.2 switch=n enabled=y phases=2 Linecode=1P_UG_AL_1/0_Brenau_2

New Line.l(r:p13udm5734-p13udm5735) Units=km Length=0.00935005 bus1=p13udm5734.1.2 bus2=p13udm5735.1.2 switch=n enabled=y phases=2 Linecode=1P_UG_AL_1/0_Brenau_2

New Line.l(r:p13udm5734-p13udt1326lv) Units=km Length=0.00935005 bus1=p13udt1326lv.1.2 bus2=p13udm5734.1.2 switch=n enabled=y phases=2 Linecode=1P_UG_AL_1/0_Brenau_2

New Line.l(r:p13udt1327lv-p13ulv3454) Units=km Length=0.0113374 bus1=p13udt1327lv.1.2 bus2=p13ulv3454.1.2 switch=n enabled=y phases=2 Linecode=1P_OH_AL_2/0_Rucina_2

New Line.l(r:p13udt1327lv-p13ulv90974) Units=km Length=0.0152438 bus1=p13udt1327lv.1.2 bus2=p13ulv90974.1.2 switch=n enabled=y phases=2 Linecode=1P_OH_AL_2/0_Rucina_2

New Line.l(r:p13udt1328lv-p13ulv3455) Units=km Length=0.0103893 bus1=p13udt1328lv.1.2 bus2=p13ulv3455.1.2 switch=n enabled=y phases=2 Linecode=1P_UG_AL_1/0_Brenau_2

New Line.l(r:p13udm5739-p13ulv90862) Units=km Length=0.0102646 bus1=p13udm5739.1.2 bus2=p13ulv90862.1.2 switch=n enabled=y phases=2 Linecode=1P_OH_AL_2/0_Rucina_2

New Line.l(r:p13udm5740-p13ulv90871) Units=km Length=0.017213 bus1=p13udm5740.1.2 bus2=p13ulv90871.1.2 switch=n enabled=y phases=2 Linecode=1P_OH_AL_2/0_Rucina_2

New Line.l(r:p13udm5739-p13udm5740) Units=km Length=0.012120100000000002 bus1=p13udm5739.1.2 bus2=p13udm5740.1.2 switch=n enabled=y phases=2 Linecode=1P_OH_AL_2/0_Rucina_2

New Line.l(r:p13udm5739-p13udt1328lv) Units=km Length=0.0216916 bus1=p13udt1328lv.1.2 bus2=p13udm5739.1.2 switch=n enabled=y phases=2 Linecode=1P_OH_AL_2/0_Rucina_2

New Line.l(r:p13udm5742-p13ulv90926) Units=km Length=0.0123832 bus1=p13udm5742.1.2 bus2=p13ulv90926.1.2 switch=n enabled=y phases=2 Linecode=1P_UG_AL_1/0_Brenau_2

New Line.l(r:p13udm5741-p13ulv90915) Units=km Length=0.00645591 bus1=p13udm5741.1.2 bus2=p13ulv90915.1.2 switch=n enabled=y phases=2 Linecode=1P_UG_AL_4/0_Sweetbriar_2

New Line.l(r:p13udm5741-p13udm5742) Units=km Length=0.00957169 bus1=p13udm5742.1.2 bus2=p13udm5741.1.2 switch=n enabled=y phases=2 Linecode=1P_UG_AL_4/0_Sweetbriar_2

New Line.l(r:p13udm5742-p13udt1328lv) Units=km Length=0.0191332 bus1=p13udt1328lv.1.2 bus2=p13udm5742.1.2 switch=n enabled=y phases=2 Linecode=1P_UG_AL_4/0_Sweetbriar_2

New Line.l(r:p13udt1329lv-p13ulv3456) Units=km Length=0.012675600000000002 bus1=p13udt1329lv.1.2 bus2=p13ulv3456.1.2 switch=n enabled=y phases=2 Linecode=1P_UG_AL_1/0_Brenau_2

New Line.l(r:p13udm5744-p13ulv3470) Units=km Length=0.0103548 bus1=p13udm5744.1.2 bus2=p13ulv3470.1.2 switch=n enabled=y phases=2 Linecode=1P_UG_AL_1/0_Brenau_2_2

New Line.l(r:p13udm5744-p13ulv15811) Units=km Length=0.0104351 bus1=p13udm5744.1.2 bus2=p13ulv15811.1.2 switch=n enabled=y phases=2 Linecode=1P_UG_AL_4/0_Sweetbriar_2

New Line.l(r:p13udm5744-p13udt1329lv) Units=km Length=0.00906014 bus1=p13udt1329lv.1.2 bus2=p13udm5744.1.2 switch=n enabled=y phases=2 Linecode=1P_UG_AL_4/0_Sweetbriar_2_1

New Line.l(r:p13udm5746-p13ulv90813) Units=km Length=0.0122703 bus1=p13udm5746.1.2 bus2=p13ulv90813.1.2 switch=n enabled=y phases=2 Linecode=1P_UG_AL_1/0_Brenau_2

New Line.l(r:p13udm5746-p13ulv95590) Units=km Length=0.0133693 bus1=p13udm5746.1.2 bus2=p13ulv95590.1.2 switch=n enabled=y phases=2 Linecode=1P_UG_AL_1/0_Brenau_2

New Line.l(r:p13udm5746-p13udt1329lv) Units=km Length=0.00907009 bus1=p13udt1329lv.1.2 bus2=p13udm5746.1.2 switch=n enabled=y phases=2 Linecode=1P_UG_AL_1/0_Brenau_2

New Line.l(r:p13udt1330lv-p13ulv3458) Units=km Length=0.00731864 bus1=p13udt1330lv.1.2 bus2=p13ulv3458.1.2 switch=n enabled=y phases=2 Linecode=1P_UG_AL_1/0_Brenau_2

New Line.l(r:p13udm5748-p13ulv3457) Units=km Length=0.0137323 bus1=p13udm5748.1.2 bus2=p13ulv3457.1.2 switch=n enabled=y phases=2 Linecode=1P_UG_AL_1/0_Brenau_2

New Line.l(r:p13udm5748-p13ulv90814) Units=km Length=0.0135956 bus1=p13udm5748.1.2 bus2=p13ulv90814.1.2 switch=n enabled=y phases=2 Linecode=1P_UG_AL_1/0_Brenau_2

New Line.l(r:p13udm5748-p13udt1330lv) Units=km Length=0.0251814 bus1=p13udt1330lv.1.2 bus2=p13udm5748.1.2 switch=n enabled=y phases=2 Linecode=1P_UG_AL_1/0_Brenau_2

New Line.l(r:p13udm5753-p13ulv92681) Units=km Length=0.0119318 bus1=p13udm5753.1.2 bus2=p13ulv92681.1.2 switch=n enabled=y phases=2 Linecode=1P_UG_AL_1/0_Brenau_2

New Line.l(r:p13udm5751-p13ulv90792) Units=km Length=0.011412500000000003 bus1=p13udm5751.1.2 bus2=p13ulv90792.1.2 switch=n enabled=y phases=2 Linecode=1P_UG_AL_1/0_Brenau_2

New Line.l(r:p13udm5751-p13udm5753) Units=km Length=0.00944005 bus1=p13udm5753.1.2 bus2=p13udm5751.1.2 switch=n enabled=y phases=2 Linecode=1P_UG_AL_1/0_Brenau_2

New Line.l(r:p13udm5753-p13udt1330lv) Units=km Length=0.0324498 bus1=p13udt1330lv.1.2 bus2=p13udm5753.1.2 switch=n enabled=y phases=2 Linecode=1P_UG_AL_1/0_Brenau_2

New Line.l(r:p13udm5754-p13ulv92682) Units=km Length=0.00991435 bus1=p13udm5754.1.2 bus2=p13ulv92682.1.2 switch=n enabled=y phases=2 Linecode=1P_UG_AL_1/0_Brenau_2

New Line.l(r:p13udm5750-p13ulv90787) Units=km Length=0.009866640000000001 bus1=p13udm5750.1.2 bus2=p13ulv90787.1.2 switch=n enabled=y phases=2 Linecode=1P_UG_AL_2/0_Converse_2

New Line.l(r:p13udm5750-p13ulv92685) Units=km Length=0.0114891 bus1=p13udm5750.1.2 bus2=p13ulv92685.1.2 switch=n enabled=y phases=2 Linecode=1P_UG_AL_1/0_Brenau_2

New Line.l(r:p13udm5750-p13udm5754) Units=km Length=0.0230182 bus1=p13udm5754.1.2 bus2=p13udm5750.1.2 switch=n enabled=y phases=2 Linecode=1P_UG_AL_4/0_Sweetbriar_2

New Line.l(r:p13udm5754-p13udt1330lv) Units=km Length=0.00854123 bus1=p13udt1330lv.1.2 bus2=p13udm5754.1.2 switch=n enabled=y phases=2 Linecode=1P_UG_AL_4/0_Sweetbriar_2

New Line.l(r:p13udt1331lv-p13ulv3460) Units=km Length=0.0121554 bus1=p13udt1331lv.1.2 bus2=p13ulv3460.1.2 switch=n enabled=y phases=2 Linecode=1P_UG_AL_1/0_Brenau_2

New Line.l(r:p13udt1331lv-p13ulv3461) Units=km Length=0.0214856 bus1=p13udt1331lv.1.2 bus2=p13ulv3461.1.2 switch=n enabled=y phases=2 Linecode=1P_UG_AL_1/0_Brenau_2

New Line.l(r:p13udm5756-p13ulv3459) Units=km Length=0.00975287 bus1=p13udm5756.1.2 bus2=p13ulv3459.1.2 switch=n enabled=y phases=2 Linecode=1P_UG_AL_1/0_Brenau_2

New Line.l(r:p13udm5756-p13udt1331lv) Units=km Length=0.0298214 bus1=p13udt1331lv.1.2 bus2=p13udm5756.1.2 switch=n enabled=y phases=2 Linecode=1P_UG_AL_1/0_Brenau_2

New Line.l(r:p13udm5759-p13ulv3467) Units=km Length=0.0138898 bus1=p13udm5759.1.2 bus2=p13ulv3467.1.2 switch=n enabled=y phases=2 Linecode=1P_UG_AL_4/0_Sweetbriar_2

New Line.l(r:p13udm5759-p13ulv90817) Units=km Length=0.0124646 bus1=p13udm5759.1.2 bus2=p13ulv90817.1.2 switch=n enabled=y phases=2 Linecode=1P_UG_AL_1/0_Brenau_2

New Line.l(r:p13udm5759-p13udt1331lv) Units=km Length=0.00994041 bus1=p13udt1331lv.1.2 bus2=p13udm5759.1.2 switch=n enabled=y phases=2 Linecode=1P_UG_AL_4/0_Sweetbriar_2

New Line.l(r:p13udt1333lv-p13ulv3469) Units=km Length=0.00933279 bus1=p13udt1333lv.1.2 bus2=p13ulv3469.1.2 switch=n enabled=y phases=2 Linecode=1P_UG_AL_4/0_Sweetbriar_2

New Line.l(r:p13udt1335lv-p13ulv15765) Units=km Length=0.013064900000000003 bus1=p13udt1335lv.1.2 bus2=p13ulv15765.1.2 switch=n enabled=y phases=2 Linecode=1P_UG_AL_1/0_Brenau_2

New Line.l(r:p13udt1335lv-p13ulv92523) Units=km Length=0.012670900000000002 bus1=p13udt1335lv.1.2 bus2=p13ulv92523.1.2 switch=n enabled=y phases=2 Linecode=1P_UG_AL_1/0_Brenau_2

New Line.l(r:p13udt1335lv-p13ulv92533) Units=km Length=0.0420324 bus1=p13udt1335lv.1.2 bus2=p13ulv92533.1.2 switch=n enabled=y phases=2 Linecode=1P_UG_AL_1/0_Brenau_2

New Line.l(r:p13udm5768-p13ulv3476) Units=km Length=0.0127025 bus1=p13udm5768.1.2 bus2=p13ulv3476.1.2 switch=n enabled=y phases=2 Linecode=1P_UG_AL_1/0_Brenau_2

New Line.l(r:p13udm5768-p13udt1335lv) Units=km Length=0.00943002 bus1=p13udt1335lv.1.2 bus2=p13udm5768.1.2 switch=n enabled=y phases=2 Linecode=1P_UG_AL_1/0_Brenau_2

New Line.l(r:p13udm5769-p13ulv15764) Units=km Length=0.0119593 bus1=p13udm5769.1.2 bus2=p13ulv15764.1.2 switch=n enabled=y phases=2 Linecode=1P_UG_AL_2/0_Converse_2

New Line.l(r:p13udm5769-p13ulv92504) Units=km Length=0.0136007 bus1=p13udm5769.1.2 bus2=p13ulv92504.1.2 switch=n enabled=y phases=2 Linecode=1P_UG_AL_1/0_Brenau_2

New Line.l(r:p13udm5772-p13ulv92513) Units=km Length=0.0404146 bus1=p13udm5772.1.2 bus2=p13ulv92513.1.2 switch=n enabled=y phases=2 Linecode=1P_UG_AL_1/0_Brenau_2

New Line.l(r:p13udm5769-p13udm5772) Units=km Length=0.00943002 bus1=p13udm5769.1.2 bus2=p13udm5772.1.2 switch=n enabled=y phases=2 Linecode=1P_UG_AL_1/0_Brenau_2

New Line.l(r:p13udm5769-p13udt1335lv) Units=km Length=0.00942005 bus1=p13udt1335lv.1.2 bus2=p13udm5769.1.2 switch=n enabled=y phases=2 Linecode=1P_UG_AL_4/0_Sweetbriar_2

New Line.l(r:p13udt1336lv-p13ulv3477) Units=km Length=0.0131932 bus1=p13udt1336lv.1.2 bus2=p13ulv3477.1.2 switch=n enabled=y phases=2 Linecode=1P_UG_AL_1/0_Brenau_2

New Line.l(r:p13udt1336lv-p13ulv95504) Units=km Length=0.0125187 bus1=p13udt1336lv.1.2 bus2=p13ulv95504.1.2 switch=n enabled=y phases=2 Linecode=1P_UG_AL_1/0_Brenau_2

New Line.l(r:p13udm5776-p13ulv92620) Units=km Length=0.0139115 bus1=p13udm5776.1.2 bus2=p13ulv92620.1.2 switch=n enabled=y phases=2 Linecode=1P_UG_AL_1/0_Brenau_2

New Line.l(r:p13udm5776-p13ulv95512) Units=km Length=0.0133463 bus1=p13udm5776.1.2 bus2=p13ulv95512.1.2 switch=n enabled=y phases=2 Linecode=1P_UG_AL_1/0_Brenau_2

New Line.l(r:p13udm5776-p13udt1336lv) Units=km Length=0.00942002 bus1=p13udt1336lv.1.2 bus2=p13udm5776.1.2 switch=n enabled=y phases=2 Linecode=1P_UG_AL_1/0_Brenau_2

New Line.l(r:p13udm5777-p13ulv94133) Units=km Length=0.0140894 bus1=p13udm5777.1.2 bus2=p13ulv94133.1.2 switch=n enabled=y phases=2 Linecode=1P_UG_AL_1/0_Brenau_2

New Line.l(r:p13udm5777-p13udt1336lv) Units=km Length=0.009430050000000002 bus1=p13udt1336lv.1.2 bus2=p13udm5777.1.2 switch=n enabled=y phases=2 Linecode=1P_UG_AL_1/0_Brenau_2

New Line.l(r:p13udt1337lv-p13ulv94130) Units=km Length=0.013303600000000002 bus1=p13udt1337lv.1.2 bus2=p13ulv94130.1.2 switch=n enabled=y phases=2 Linecode=1P_UG_AL_1/0_Brenau_2

New Line.l(r:p13udt1337lv-p13ulv94324) Units=km Length=0.013655000000000002 bus1=p13udt1337lv.1.2 bus2=p13ulv94324.1.2 switch=n enabled=y phases=2 Linecode=1P_UG_AL_1/0_Brenau_2

New Line.l(r:p13udm5780-p13ulv3478) Units=km Length=0.0134133 bus1=p13udm5780.1.2 bus2=p13ulv3478.1.2 switch=n enabled=y phases=2 Linecode=1P_UG_AL_4/0_Sweetbriar_2

New Line.l(r:p13udm5780-p13ulv97311) Units=km Length=0.0141578 bus1=p13udm5780.1.2 bus2=p13ulv97311.1.2 switch=n enabled=y phases=2 Linecode=1P_UG_AL_2/0_Converse_2

New Line.l(r:p13udm5780-p13udt1337lv) Units=km Length=0.00886001 bus1=p13udt1337lv.1.2 bus2=p13udm5780.1.2 switch=n enabled=y phases=2 Linecode=1P_UG_AL_4/0_Sweetbriar_2

New Line.l(r:p13udt1338lv-p13ulv94131) Units=km Length=0.014134 bus1=p13udt1338lv.1.2 bus2=p13ulv94131.1.2 switch=n enabled=y phases=2 Linecode=1P_UG_AL_2/0_Converse_2

New Line.l(r:p13udm5784-p13ulv3479) Units=km Length=0.0134511 bus1=p13udm5784.1.2 bus2=p13ulv3479.1.2 switch=n enabled=y phases=2 Linecode=1P_UG_AL_2/0_Converse_2

New Line.l(r:p13udm5785-p13ulv92484) Units=km Length=0.0132888 bus1=p13udm5785.1.2 bus2=p13ulv92484.1.2 switch=n enabled=y phases=2 Linecode=1P_UG_AL_1/0_Brenau_2

New Line.l(r:p13udm5785-p13ulv94132) Units=km Length=0.011888000000000001 bus1=p13udm5785.1.2 bus2=p13ulv94132.1.2 switch=n enabled=y phases=2 Linecode=1P_UG_AL_1/0_Brenau_2

New Line.l(r:p13udm5784-p13udm5785) Units=km Length=0.00887001 bus1=p13udm5784.1.2 bus2=p13udm5785.1.2 switch=n enabled=y phases=2 Linecode=1P_UG_AL_2/0_Converse_2

New Line.l(r:p13udm5784-p13udt1338lv) Units=km Length=0.00886001 bus1=p13udt1338lv.1.2 bus2=p13udm5784.1.2 switch=n enabled=y phases=2 Linecode=1P_UG_AL_4/0_Sweetbriar_2

New Line.l(r:p13udm5788-p13ulv97275) Units=km Length=0.012293 bus1=p13udm5788.1.2 bus2=p13ulv97275.1.2 switch=n enabled=y phases=2 Linecode=1P_UG_AL_1/0_Brenau_2

New Line.l(r:p13udm5788-p13udt1338lv) Units=km Length=0.0708898 bus1=p13udt1338lv.1.2 bus2=p13udm5788.1.2 switch=n enabled=y phases=2 Linecode=1P_UG_AL_1/0_Brenau_2

New Line.l(r:p13udt1339lv-p13ulv3480) Units=km Length=0.0121844 bus1=p13udt1339lv.1.2 bus2=p13ulv3480.1.2 switch=n enabled=y phases=2 Linecode=1P_UG_AL_1/0_Brenau_2

New Line.l(r:p13udt1339lv-p13ulv92603) Units=km Length=0.0131927 bus1=p13udt1339lv.1.2 bus2=p13ulv92603.1.2 switch=n enabled=y phases=2 Linecode=1P_UG_AL_1/0_Brenau_2

New Line.l(r:p13udm5790-p13ulv3481) Units=km Length=0.0125508 bus1=p13udm5790.1.2 bus2=p13ulv3481.1.2 switch=n enabled=y phases=2 Linecode=1P_UG_AL_1/0_Brenau_2

New Line.l(r:p13udm5790-p13ulv92564) Units=km Length=0.0120682 bus1=p13udm5790.1.2 bus2=p13ulv92564.1.2 switch=n enabled=y phases=2 Linecode=1P_UG_AL_1/0_Brenau_2

New Line.l(r:p13udm5790-p13udt1339lv) Units=km Length=0.00980025 bus1=p13udt1339lv.1.2 bus2=p13udm5790.1.2 switch=n enabled=y phases=2 Linecode=1P_UG_AL_4/0_Sweetbriar_2

New Line.l(r:p13udt7121lv-p13ulv15690) Units=km Length=0.0116704 bus1=p13udt7121lv.1.2 bus2=p13ulv15690.1.2 switch=n enabled=y phases=2 Linecode=1P_UG_AL_1/0_Brenau_2

New Line.l(r:p13udm30727-p13ulv16323) Units=km Length=0.0116919 bus1=p13udm30727.1.2 bus2=p13ulv16323.1.2 switch=n enabled=y phases=2 Linecode=1P_UG_AL_1/0_Brenau_2

New Line.l(r:p13udm30733-p13ulv97387) Units=km Length=0.00867613 bus1=p13udm30733.1.2 bus2=p13ulv97387.1.2 switch=n enabled=y phases=2 Linecode=1P_UG_AL_1/0_Brenau_2

New Line.l(r:p13udm30727-p13udm30733) Units=km Length=0.00846433 bus1=p13udm30727.1.2 bus2=p13udm30733.1.2 switch=n enabled=y phases=2 Linecode=1P_UG_AL_1/0_Brenau_2

New Line.l(r:p13udm30727-p13udt7121lv) Units=km Length=0.008478 bus1=p13udt7121lv.1.2 bus2=p13udm30727.1.2 switch=n enabled=y phases=2 Linecode=1P_UG_AL_1/0_Brenau_2

New Line.l(r:p13udm30728-p13ulv95471) Units=km Length=0.0468086 bus1=p13udm30728.1.2 bus2=p13ulv95471.1.2 switch=n enabled=y phases=2 Linecode=1P_UG_AL_1/0_Brenau_2

New Line.l(r:p13udm30728-p13ulv97321) Units=km Length=0.0368547 bus1=p13udm30728.1.2 bus2=p13ulv97321.1.2 switch=n enabled=y phases=2 Linecode=1P_UG_AL_1/0_Brenau_2

New Line.l(r:p13udm30728-p13ulv97331) Units=km Length=0.0143178 bus1=p13udm30728.1.2 bus2=p13ulv97331.1.2 switch=n enabled=y phases=2 Linecode=1P_UG_AL_1/0_Brenau_2

New Line.l(r:p13udm30728-p13ulv97378) Units=km Length=0.00991921 bus1=p13udm30728.1.2 bus2=p13ulv97378.1.2 switch=n enabled=y phases=2 Linecode=1P_UG_AL_1/0_Brenau_2

New Line.l(r:p13udm30731-p13ulv97370) Units=km Length=0.0110705 bus1=p13udm30731.1.2 bus2=p13ulv97370.1.2 switch=n enabled=y phases=2 Linecode=1P_UG_AL_1/0_Brenau_2

New Line.l(r:p13udm30728-p13udm30731) Units=km Length=0.00944545 bus1=p13udm30728.1.2 bus2=p13udm30731.1.2 switch=n enabled=y phases=2 Linecode=1P_UG_AL_1/0_Brenau_2

New Line.l(r:p13udm30728-p13udt7121lv) Units=km Length=0.00846433 bus1=p13udt7121lv.1.2 bus2=p13udm30728.1.2 switch=n enabled=y phases=2 Linecode=1P_UG_AL_4/0_Sweetbriar_2

New Line.l(r:p13udt7122lv-p13ulv15692) Units=km Length=0.0140286 bus1=p13udt7122lv.1.2 bus2=p13ulv15692.1.2 switch=n enabled=y phases=2 Linecode=1P_UG_AL_1/0_Brenau_2

New Line.l(r:p13udt7122lv-p13ulv15724) Units=km Length=0.0125556 bus1=p13udt7122lv.1.2 bus2=p13ulv15724.1.2 switch=n enabled=y phases=2 Linecode=1P_UG_AL_1/0_Brenau_2

New Line.l(r:p13udm30737-p13ulv15725) Units=km Length=0.0133701 bus1=p13udm30737.1.2 bus2=p13ulv15725.1.2 switch=n enabled=y phases=2 Linecode=1P_UG_AL_1/0_Brenau_2

New Line.l(r:p13udm30737-p13ulv97244) Units=km Length=0.0340689 bus1=p13udm30737.1.2 bus2=p13ulv97244.1.2 switch=n enabled=y phases=2 Linecode=1P_UG_AL_1/0_Brenau_2

New Line.l(r:p13udm30737-p13ulv97252) Units=km Length=0.013087200000000002 bus1=p13udm30737.1.2 bus2=p13ulv97252.1.2 switch=n enabled=y phases=2 Linecode=1P_UG_AL_1/0_Brenau_2

New Line.l(r:p13udm30741-p13ulv97281) Units=km Length=0.0135182 bus1=p13udm30741.1.2 bus2=p13ulv97281.1.2 switch=n enabled=y phases=2 Linecode=1P_UG_AL_1/0_Brenau_2

New Line.l(r:p13udm30738-p13ulv97230) Units=km Length=0.0414725 bus1=p13udm30738.1.2 bus2=p13ulv97230.1.2 switch=n enabled=y phases=2 Linecode=1P_UG_AL_1/0_Brenau_2

New Line.l(r:p13udm30738-p13udm30741) Units=km Length=0.00936265 bus1=p13udm30741.1.2 bus2=p13udm30738.1.2 switch=n enabled=y phases=2 Linecode=1P_UG_AL_1/0_Brenau_2

New Line.l(r:p13udm30737-p13udm30741) Units=km Length=0.00936265 bus1=p13udm30737.1.2 bus2=p13udm30741.1.2 switch=n enabled=y phases=2 Linecode=1P_UG_AL_1/0_Brenau_2

New Line.l(r:p13udm30737-p13udt7122lv) Units=km Length=0.00935761 bus1=p13udt7122lv.1.2 bus2=p13udm30737.1.2 switch=n enabled=y phases=2 Linecode=1P_UG_AL_4/0_Sweetbriar_2

New Line.l(r:p13udm30742-p13ulv97309) Units=km Length=0.0134925 bus1=p13udm30742.1.2 bus2=p13ulv97309.1.2 switch=n enabled=y phases=2 Linecode=1P_UG_AL_1/0_Brenau_2

New Line.l(r:p13udm30734-p13ulv15691) Units=km Length=0.0136069 bus1=p13udm30734.1.2 bus2=p13ulv15691.1.2 switch=n enabled=y phases=2 Linecode=1P_UG_AL_1/0_Brenau_2

New Line.l(r:p13udm30734-p13udm30742) Units=km Length=0.00935403 bus1=p13udm30742.1.2 bus2=p13udm30734.1.2 switch=n enabled=y phases=2 Linecode=1P_UG_AL_1/0_Brenau_2

New Line.l(r:p13udm30742-p13udt7122lv) Units=km Length=0.00936265 bus1=p13udt7122lv.1.2 bus2=p13udm30742.1.2 switch=n enabled=y phases=2 Linecode=1P_UG_AL_1/0_Brenau_2

New Line.l(r:p13udm30743-p13ulv15693) Units=km Length=0.0207151 bus1=p13udm30743.1.2 bus2=p13ulv15693.1.2 switch=n enabled=y phases=2 Linecode=1P_UG_AL_4/0_Sweetbriar_2

New Line.l(r:p13udm30743-p13ulv97265) Units=km Length=0.0134019 bus1=p13udm30743.1.2 bus2=p13ulv97265.1.2 switch=n enabled=y phases=2 Linecode=1P_UG_AL_1/0_Brenau_2

New Line.l(r:p13udm30746-p13ulv97234) Units=km Length=0.0141388 bus1=p13udm30746.1.2 bus2=p13ulv97234.1.2 switch=n enabled=y phases=2 Linecode=1P_UG_AL_1/0_Brenau_2

New Line.l(r:p13udm30743-p13udm30746) Units=km Length=0.00894588 bus1=p13udm30743.1.2 bus2=p13udm30746.1.2 switch=n enabled=y phases=2 Linecode=1P_UG_AL_1/0_Brenau_2

New Line.l(r:p13udm30743-p13udt7123lv) Units=km Length=0.00894083 bus1=p13udt7123lv.1.2 bus2=p13udm30743.1.2 switch=n enabled=y phases=2 Linecode=1P_UG_AL_4/0_Sweetbriar_2

New Line.l(r:p13udm30744-p13ulv15694) Units=km Length=0.010621600000000002 bus1=p13udm30744.1.2 bus2=p13ulv15694.1.2 switch=n enabled=y phases=2 Linecode=1P_UG_AL_1/0_Brenau_2

New Line.l(r:p13udm30744-p13ulv97232) Units=km Length=0.012361600000000002 bus1=p13udm30744.1.2 bus2=p13ulv97232.1.2 switch=n enabled=y phases=2 Linecode=1P_UG_AL_2/0_Converse_2

New Line.l(r:p13udm30744-p13udt7123lv) Units=km Length=0.00894588 bus1=p13udt7123lv.1.2 bus2=p13udm30744.1.2 switch=n enabled=y phases=2 Linecode=1P_UG_AL_4/0_Sweetbriar_2

New Line.l(r:p13udm30748-p13ulv15695) Units=km Length=0.0141686 bus1=p13udm30748.1.2 bus2=p13ulv15695.1.2 switch=n enabled=y phases=2 Linecode=1P_UG_AL_1/0_Brenau_2

New Line.l(r:p13udm30751-p13ulv97261) Units=km Length=0.0333191 bus1=p13udm30751.1.2 bus2=p13ulv97261.1.2 switch=n enabled=y phases=2 Linecode=1P_UG_AL_1/0_Brenau_2

New Line.l(r:p13udm30748-p13udm30751) Units=km Length=0.026832600000000005 bus1=p13udm30748.1.2 bus2=p13udm30751.1.2 switch=n enabled=y phases=2 Linecode=1P_UG_AL_1/0_Brenau_2

New Line.l(r:p13udm30748-p13udt7124lv) Units=km Length=0.00894588 bus1=p13udt7124lv.1.2 bus2=p13udm30748.1.2 switch=n enabled=y phases=2 Linecode=1P_UG_AL_4/0_Sweetbriar_2

New Line.l(r:p13udm30749-p13ulv97199) Units=km Length=0.0128914 bus1=p13udm30749.1.2 bus2=p13ulv97199.1.2 switch=n enabled=y phases=2 Linecode=1P_UG_AL_1/0_Brenau_2

New Line.l(r:p13udm30749-p13ulv97223) Units=km Length=0.0186409 bus1=p13udm30749.1.2 bus2=p13ulv97223.1.2 switch=n enabled=y phases=2 Linecode=1P_UG_AL_1/0_Brenau_2

New Line.l(r:p13udm30749-p13ulv99088) Units=km Length=0.020245800000000005 bus1=p13udm30749.1.2 bus2=p13ulv99088.1.2 switch=n enabled=y phases=2 Linecode=1P_UG_AL_4/0_Sweetbriar_2

New Line.l(r:p13udm30749-p13udt7124lv) Units=km Length=0.00893725 bus1=p13udt7124lv.1.2 bus2=p13udm30749.1.2 switch=n enabled=y phases=2 Linecode=1P_UG_AL_4/0_Sweetbriar_2

New Line.l(r:p13udm30753-p13ulv15696) Units=km Length=0.014300500000000002 bus1=p13udm30753.1.2 bus2=p13ulv15696.1.2 switch=n enabled=y phases=2 Linecode=1P_UG_AL_1/0_Brenau_2

New Line.l(r:p13udm30754-p13ulv15697) Units=km Length=0.0132535 bus1=p13udm30754.1.2 bus2=p13ulv15697.1.2 switch=n enabled=y phases=2 Linecode=1P_UG_AL_1/0_Brenau_2

New Line.l(r:p13udm30755-p13ulv98919) Units=km Length=0.0105746 bus1=p13udm30755.1.2 bus2=p13ulv98919.1.2 switch=n enabled=y phases=2 Linecode=1P_UG_AL_1/0_Brenau_2

New Line.l(r:p13udm30756-p13ulv98932) Units=km Length=0.0122506 bus1=p13udm30756.1.2 bus2=p13ulv98932.1.2 switch=n enabled=y phases=2 Linecode=1P_UG_AL_1/0_Brenau_2

New Line.l(r:p13udm30756-p13ulv98937) Units=km Length=0.0083591 bus1=p13udm30756.1.2 bus2=p13ulv98937.1.2 switch=n enabled=y phases=2 Linecode=1P_UG_AL_1/0_Brenau_2

New Line.l(r:p13udm30755-p13udm30756) Units=km Length=0.0152176 bus1=p13udm30755.1.2 bus2=p13udm30756.1.2 switch=n enabled=y phases=2 Linecode=1P_UG_AL_4/0_Sweetbriar_2

New Line.l(r:p13udm30754-p13udm30755) Units=km Length=0.0187592 bus1=p13udm30754.1.2 bus2=p13udm30755.1.2 switch=n enabled=y phases=2 Linecode=1P_UG_AL_4/0_Sweetbriar_2

New Line.l(r:p13udm30761-p13ulv100792) Units=km Length=0.0118213 bus1=p13udm30761.1.2 bus2=p13ulv100792.1.2 switch=n enabled=y phases=2 Linecode=1P_UG_AL_1/0_Brenau_2

New Line.l(r:p13udm30760-p13ulv100783) Units=km Length=0.0254051 bus1=p13udm30760.1.2 bus2=p13ulv100783.1.2 switch=n enabled=y phases=2 Linecode=1P_UG_AL_1/0_Brenau_2

New Line.l(r:p13udm30760-p13udm30761) Units=km Length=0.0194903 bus1=p13udm30761.1.2 bus2=p13udm30760.1.2 switch=n enabled=y phases=2 Linecode=1P_UG_AL_1/0_Brenau_2

New Line.l(r:p13udm30754-p13udm30761) Units=km Length=0.0167698 bus1=p13udm30754.1.2 bus2=p13udm30761.1.2 switch=n enabled=y phases=2 Linecode=1P_UG_AL_1/0_Brenau_2

New Line.l(r:p13udm30753-p13udm30754) Units=km Length=0.007035480000000001 bus1=p13udm30753.1.2 bus2=p13udm30754.1.2 switch=n enabled=y phases=2 Linecode=1P_UG_AL_4/0_Sweetbriar_2

New Line.l(r:p13udm30753-p13udt7125lv) Units=km Length=0.00703938 bus1=p13udt7125lv.1.2 bus2=p13udm30753.1.2 switch=n enabled=y phases=2 Linecode=1P_UG_AL_4/0_Sweetbriar_2

New Line.l(r:p13udm30758-p13ulv98940) Units=km Length=0.0169138 bus1=p13udm30758.1.2 bus2=p13ulv98940.1.2 switch=n enabled=y phases=2 Linecode=1P_UG_AL_1/0_Brenau_2

New Line.l(r:p13udm30758-p13ulv98966) Units=km Length=0.00888955 bus1=p13udm30758.1.2 bus2=p13ulv98966.1.2 switch=n enabled=y phases=2 Linecode=1P_UG_AL_1/0_Brenau_2

New Line.l(r:p13udm30758-p13udt7125lv) Units=km Length=0.0377496 bus1=p13udt7125lv.1.2 bus2=p13udm30758.1.2 switch=n enabled=y phases=2 Linecode=1P_UG_AL_1/0_Brenau_2

New Line.l(r:p13udt7126lv-p13ulv99022) Units=km Length=0.0100127 bus1=p13udt7126lv.1.2 bus2=p13ulv99022.1.2 switch=n enabled=y phases=2 Linecode=1P_UG_AL_1/0_Brenau_2

New Line.l(r:p13udt7126lv-p13ulv99062) Units=km Length=0.013979400000000001 bus1=p13udt7126lv.1.2 bus2=p13ulv99062.1.2 switch=n enabled=y phases=2 Linecode=1P_UG_AL_1/0_Brenau_2

New Line.l(r:p13udm30766-p13ulv99048) Units=km Length=0.0135825 bus1=p13udm30766.1.2 bus2=p13ulv99048.1.2 switch=n enabled=y phases=2 Linecode=1P_UG_AL_1/0_Brenau_2

New Line.l(r:p13udm30766-p13ulv99058) Units=km Length=0.0393907 bus1=p13udm30766.1.2 bus2=p13ulv99058.1.2 switch=n enabled=y phases=2 Linecode=1P_UG_AL_1/0_Brenau_2

New Line.l(r:p13udm30764-p13ulv99033) Units=km Length=0.0156522 bus1=p13udm30764.1.2 bus2=p13ulv99033.1.2 switch=n enabled=y phases=2 Linecode=1P_UG_AL_1/0_Brenau_2

New Line.l(r:p13udm30765-p13ulv99034) Units=km Length=0.0421496 bus1=p13udm30765.1.2 bus2=p13ulv99034.1.2 switch=n enabled=y phases=2 Linecode=1P_UG_AL_1/0_Brenau_2

New Line.l(r:p13udm30764-p13udm30765) Units=km Length=0.00864523 bus1=p13udm30764.1.2 bus2=p13udm30765.1.2 switch=n enabled=y phases=2 Linecode=1P_UG_AL_1/0_Brenau_2

New Line.l(r:p13udm30764-p13udm30766) Units=km Length=0.00865021 bus1=p13udm30766.1.2 bus2=p13udm30764.1.2 switch=n enabled=y phases=2 Linecode=1P_UG_AL_1/0_Brenau_2

New Line.l(r:p13udm30766-p13udt7126lv) Units=km Length=0.00863656 bus1=p13udt7126lv.1.2 bus2=p13udm30766.1.2 switch=n enabled=y phases=2 Linecode=1P_UG_AL_4/0_Sweetbriar_2

New Line.l(r:p13udm30769-p13ulv99074) Units=km Length=0.0140791 bus1=p13udm30769.1.2 bus2=p13ulv99074.1.2 switch=n enabled=y phases=2 Linecode=1P_UG_AL_1/0_Brenau_2

New Line.l(r:p13udm30762-p13ulv15698) Units=km Length=0.0140395 bus1=p13udm30762.1.2 bus2=p13ulv15698.1.2 switch=n enabled=y phases=2 Linecode=1P_UG_AL_1/0_Brenau_2

New Line.l(r:p13udm30762-p13udm30769) Units=km Length=0.0174277 bus1=p13udm30769.1.2 bus2=p13udm30762.1.2 switch=n enabled=y phases=2 Linecode=1P_UG_AL_1/0_Brenau_2

New Line.l(r:p13udm30769-p13udt7126lv) Units=km Length=0.00864523 bus1=p13udt7126lv.1.2 bus2=p13udm30769.1.2 switch=n enabled=y phases=2 Linecode=1P_UG_AL_2/0_Converse_2

New Line.l(r:p13udm30770-p13ulv15699) Units=km Length=0.0136731 bus1=p13udm30770.1.2 bus2=p13ulv15699.1.2 switch=n enabled=y phases=2 Linecode=1P_UG_AL_4/0_Sweetbriar_2

New Line.l(r:p13udm30770-p13ulv99069) Units=km Length=0.013706 bus1=p13udm30770.1.2 bus2=p13ulv99069.1.2 switch=n enabled=y phases=2 Linecode=1P_UG_AL_1/0_Brenau_2

New Line.l(r:p13udm30771-p13ulv16236) Units=km Length=0.0318151 bus1=p13udm30771.1.2 bus2=p13ulv16236.1.2 switch=n enabled=y phases=2 Linecode=1P_UG_AL_1/0_Brenau_2

New Line.l(r:p13udm30772-p13ulv16237) Units=km Length=0.011868600000000002 bus1=p13udm30772.1.2 bus2=p13ulv16237.1.2 switch=n enabled=y phases=2 Linecode=1P_UG_AL_1/0_Brenau_2

New Line.l(r:p13udm30771-p13udm30772) Units=km Length=0.00955569 bus1=p13udm30771.1.2 bus2=p13udm30772.1.2 switch=n enabled=y phases=2 Linecode=1P_UG_AL_1/0_Brenau_2

New Line.l(r:p13udm30770-p13udm30771) Units=km Length=0.00870527 bus1=p13udm30770.1.2 bus2=p13udm30771.1.2 switch=n enabled=y phases=2 Linecode=1P_UG_AL_1/0_Brenau_2

New Line.l(r:p13udm30770-p13udt7127lv) Units=km Length=0.00871386 bus1=p13udt7127lv.1.2 bus2=p13udm30770.1.2 switch=n enabled=y phases=2 Linecode=1P_UG_AL_4/0_Sweetbriar_2

New Line.l(r:p13udm30774-p13ulv16247) Units=km Length=0.00951381 bus1=p13udm30774.1.2 bus2=p13ulv16247.1.2 switch=n enabled=y phases=2 Linecode=1P_UG_AL_1/0_Brenau_2

New Line.l(r:p13udm30773-p13ulv16246) Units=km Length=0.0103997 bus1=p13udm30773.1.2 bus2=p13ulv16246.1.2 switch=n enabled=y phases=2 Linecode=1P_UG_AL_1/0_Brenau_2

New Line.l(r:p13udm30773-p13ulv99047) Units=km Length=0.00995774 bus1=p13udm30773.1.2 bus2=p13ulv99047.1.2 switch=n enabled=y phases=2 Linecode=1P_UG_AL_1/0_Brenau_2

New Line.l(r:p13udm30773-p13udm30774) Units=km Length=0.00994572 bus1=p13udm30774.1.2 bus2=p13udm30773.1.2 switch=n enabled=y phases=2 Linecode=1P_UG_AL_2/0_Converse_2

New Line.l(r:p13udm30774-p13udt7127lv) Units=km Length=0.0460295 bus1=p13udt7127lv.1.2 bus2=p13udm30774.1.2 switch=n enabled=y phases=2 Linecode=1P_UG_AL_4/0_Sweetbriar_2

New Line.l(r:p13udt7128lv-p13ulv97213) Units=km Length=0.03947440000000001 bus1=p13udt7128lv.1.2 bus2=p13ulv97213.1.2 switch=n enabled=y phases=2 Linecode=1P_UG_AL_1/0_Brenau_2

New Line.l(r:p13udm30778-p13ulv15701) Units=km Length=0.0125774 bus1=p13udm30778.1.2 bus2=p13ulv15701.1.2 switch=n enabled=y phases=2 Linecode=1P_UG_AL_1/0_Brenau_2

New Line.l(r:p13udm30777-p13ulv15700) Units=km Length=0.0434408 bus1=p13udm30777.1.2 bus2=p13ulv15700.1.2 switch=n enabled=y phases=2 Linecode=1P_UG_AL_1/0_Brenau_2

New Line.l(r:p13udm30777-p13udm30778) Units=km Length=0.00870527 bus1=p13udm30778.1.2 bus2=p13udm30777.1.2 switch=n enabled=y phases=2 Linecode=1P_UG_AL_1/0_Brenau_2

New Line.l(r:p13udm30778-p13udt7128lv) Units=km Length=0.00955569 bus1=p13udt7128lv.1.2 bus2=p13udm30778.1.2 switch=n enabled=y phases=2 Linecode=1P_UG_AL_1/0_Brenau_2

New Line.l(r:p13udm30779-p13ulv15702) Units=km Length=0.0126971 bus1=p13udm30779.1.2 bus2=p13ulv15702.1.2 switch=n enabled=y phases=2 Linecode=1P_UG_AL_1/0_Brenau_2

New Line.l(r:p13udm30779-p13ulv97225) Units=km Length=0.03255980000000001 bus1=p13udm30779.1.2 bus2=p13ulv97225.1.2 switch=n enabled=y phases=2 Linecode=1P_UG_AL_1/0_Brenau_2

New Line.l(r:p13udm30782-p13ulv97231) Units=km Length=0.0415113 bus1=p13udm30782.1.2 bus2=p13ulv97231.1.2 switch=n enabled=y phases=2 Linecode=1P_UG_AL_1/0_Brenau_2

New Line.l(r:p13udm30779-p13udm30782) Units=km Length=0.009560690000000002 bus1=p13udm30779.1.2 bus2=p13udm30782.1.2 switch=n enabled=y phases=2 Linecode=1P_UG_AL_1/0_Brenau_2

New Line.l(r:p13udm30779-p13udt7128lv) Units=km Length=0.00954703 bus1=p13udt7128lv.1.2 bus2=p13udm30779.1.2 switch=n enabled=y phases=2 Linecode=1P_UG_AL_4/0_Sweetbriar_2

New Line.l(r:p13udt7129lv-p13ulv15703) Units=km Length=0.0107355 bus1=p13udt7129lv.1.2 bus2=p13ulv15703.1.2 switch=n enabled=y phases=2 Linecode=1P_UG_AL_1/0_Brenau_2

New Line.l(r:p13udt7129lv-p13ulv97236) Units=km Length=0.0131645 bus1=p13udt7129lv.1.2 bus2=p13ulv97236.1.2 switch=n enabled=y phases=2 Linecode=1P_UG_AL_1/0_Brenau_2

New Line.l(r:p13udm30784-p13ulv15705) Units=km Length=0.012765600000000002 bus1=p13udm30784.1.2 bus2=p13ulv15705.1.2 switch=n enabled=y phases=2 Linecode=1P_UG_AL_4/0_Sweetbriar_2

New Line.l(r:p13udm30784-p13udt7129lv) Units=km Length=0.0086437 bus1=p13udt7129lv.1.2 bus2=p13udm30784.1.2 switch=n enabled=y phases=2 Linecode=1P_UG_AL_4/0_Sweetbriar_2

New Line.l(r:p13udt7130lv-p13ulv97229) Units=km Length=0.013022300000000002 bus1=p13udt7130lv.1.2 bus2=p13ulv97229.1.2 switch=n enabled=y phases=2 Linecode=1P_UG_AL_1/0_Brenau_2

New Line.l(r:p13udm30786-p13ulv15704) Units=km Length=0.012620700000000002 bus1=p13udm30786.1.2 bus2=p13ulv15704.1.2 switch=n enabled=y phases=2 Linecode=1P_UG_AL_1/0_Brenau_2

New Line.l(r:p13udm30786-p13udt7130lv) Units=km Length=0.0086488 bus1=p13udt7130lv.1.2 bus2=p13udm30786.1.2 switch=n enabled=y phases=2 Linecode=1P_UG_AL_1/0_Brenau_2

New Line.l(r:p13udm30787-p13ulv97197) Units=km Length=0.0102595 bus1=p13udm30787.1.2 bus2=p13ulv97197.1.2 switch=n enabled=y phases=2 Linecode=1P_UG_AL_1/0_Brenau_2

New Line.l(r:p13udm30787-p13ulv97220) Units=km Length=0.0088436 bus1=p13udm30787.1.2 bus2=p13ulv97220.1.2 switch=n enabled=y phases=2 Linecode=1P_UG_AL_4/0_Sweetbriar_2

New Line.l(r:p13udm30787-p13udt7130lv) Units=km Length=0.00961616 bus1=p13udt7130lv.1.2 bus2=p13udm30787.1.2 switch=n enabled=y phases=2 Linecode=1P_UG_AL_4/0_Sweetbriar_2

New Line.l(r:p13udt7131lv-p13ulv15706) Units=km Length=0.028675000000000003 bus1=p13udt7131lv.1.2 bus2=p13ulv15706.1.2 switch=n enabled=y phases=2 Linecode=1P_UG_AL_1/0_Brenau_2

New Line.l(r:p13udt7131lv-p13ulv97293) Units=km Length=0.0094273 bus1=p13udt7131lv.1.2 bus2=p13ulv97293.1.2 switch=n enabled=y phases=2 Linecode=1P_UG_AL_1/0_Brenau_2

New Line.l(r:p13udm30792-p13ulv97250) Units=km Length=0.0132133 bus1=p13udm30792.1.2 bus2=p13ulv97250.1.2 switch=n enabled=y phases=2 Linecode=1P_UG_AL_1/0_Brenau_2

New Line.l(r:p13udm30792-p13udt7131lv) Units=km Length=0.00913526 bus1=p13udt7131lv.1.2 bus2=p13udm30792.1.2 switch=n enabled=y phases=2 Linecode=1P_UG_AL_1/0_Brenau_2

New Line.l(r:p13udm30793-p13ulv97273) Units=km Length=0.0117744 bus1=p13udm30793.1.2 bus2=p13ulv97273.1.2 switch=n enabled=y phases=2 Linecode=1P_UG_AL_1/0_Brenau_2

New Line.l(r:p13udm30791-p13ulv16216) Units=km Length=0.00981995 bus1=p13udm30791.1.2 bus2=p13ulv16216.1.2 switch=n enabled=y phases=2 Linecode=1P_UG_AL_1/0_Brenau_2

New Line.l(r:p13udm30791-p13udm30793) Units=km Length=0.00914027 bus1=p13udm30793.1.2 bus2=p13udm30791.1.2 switch=n enabled=y phases=2 Linecode=1P_UG_AL_1/0_Brenau_2

New Line.l(r:p13udm30793-p13udt7131lv) Units=km Length=0.00914027 bus1=p13udt7131lv.1.2 bus2=p13udm30793.1.2 switch=n enabled=y phases=2 Linecode=1P_UG_AL_1/0_Brenau_2

New Line.l(r:p13udm30805-p13ulv15749) Units=km Length=0.00917907 bus1=p13udm30805.1.2 bus2=p13ulv15749.1.2 switch=n enabled=y phases=2 Linecode=1P_UG_AL_1/0_Brenau_2

New Line.l(r:p13udm30805-p13ulv95574) Units=km Length=0.0143553 bus1=p13udm30805.1.2 bus2=p13ulv95574.1.2 switch=n enabled=y phases=2 Linecode=1P_UG_AL_1/0_Brenau_2

New Line.l(r:p13udm30803-p13ulv15712) Units=km Length=0.0125382 bus1=p13udm30803.1.2 bus2=p13ulv15712.1.2 switch=n enabled=y phases=2 Linecode=1P_UG_AL_2/0_Converse_2

New Line.l(r:p13udm30803-p13udm30805) Units=km Length=0.00949425 bus1=p13udm30805.1.2 bus2=p13udm30803.1.2 switch=n enabled=y phases=2 Linecode=1P_UG_AL_2/0_Converse_2

New Line.l(r:p13udm30805-p13udt7133lv) Units=km Length=0.00949763 bus1=p13udt7133lv.1.2 bus2=p13udm30805.1.2 switch=n enabled=y phases=2 Linecode=1P_UG_AL_4/0_Sweetbriar_2

New Line.l(r:p13udm30807-p13ulv95592) Units=km Length=0.0125445 bus1=p13udm30807.1.2 bus2=p13ulv95592.1.2 switch=n enabled=y phases=2 Linecode=1P_UG_AL_1/0_Brenau_2

New Line.l(r:p13udm30804-p13ulv15748) Units=km Length=0.0132589 bus1=p13udm30804.1.2 bus2=p13ulv15748.1.2 switch=n enabled=y phases=2 Linecode=1P_UG_AL_1/0_Brenau_2

New Line.l(r:p13udm30804-p13udm30807) Units=km Length=0.0095028 bus1=p13udm30807.1.2 bus2=p13udm30804.1.2 switch=n enabled=y phases=2 Linecode=1P_UG_AL_1/0_Brenau_2

New Line.l(r:p13udm30807-p13udt7133lv) Units=km Length=0.00949425 bus1=p13udt7133lv.1.2 bus2=p13udm30807.1.2 switch=n enabled=y phases=2 Linecode=1P_UG_AL_4/0_Sweetbriar_2

New Line.l(r:p13udt7134lv-p13ulv15721) Units=km Length=0.0118493 bus1=p13udt7134lv.1.2 bus2=p13ulv15721.1.2 switch=n enabled=y phases=2 Linecode=1P_UG_AL_1/0_Brenau_2

New Line.l(r:p13udt7134lv-p13ulv15722) Units=km Length=0.031182 bus1=p13udt7134lv.1.2 bus2=p13ulv15722.1.2 switch=n enabled=y phases=2 Linecode=1P_UG_AL_1/0_Brenau_2

New Line.l(r:p13udt7134lv-p13ulv15723) Units=km Length=0.0412014 bus1=p13udt7134lv.1.2 bus2=p13ulv15723.1.2 switch=n enabled=y phases=2 Linecode=1P_UG_AL_1/0_Brenau_2

New Line.l(r:p13udm30809-p13ulv15720) Units=km Length=0.0135756 bus1=p13udm30809.1.2 bus2=p13ulv15720.1.2 switch=n enabled=y phases=2 Linecode=1P_UG_AL_1/0_Brenau_2

New Line.l(r:p13udm30808-p13ulv15713) Units=km Length=0.01102 bus1=p13udm30808.1.2 bus2=p13ulv15713.1.2 switch=n enabled=y phases=2 Linecode=1P_UG_AL_1/0_Brenau_2

New Line.l(r:p13udm30808-p13udm30809) Units=km Length=0.00870727 bus1=p13udm30809.1.2 bus2=p13udm30808.1.2 switch=n enabled=y phases=2 Linecode=1P_UG_AL_1/0_Brenau_2

New Line.l(r:p13udm30809-p13udt7134lv) Units=km Length=0.0087158 bus1=p13udt7134lv.1.2 bus2=p13udm30809.1.2 switch=n enabled=y phases=2 Linecode=1P_UG_AL_4/0_Sweetbriar_2

New Line.l(r:p13udt7135lv-p13ulv15714) Units=km Length=0.0151068 bus1=p13udt7135lv.1.2 bus2=p13ulv15714.1.2 switch=n enabled=y phases=2 Linecode=1P_UG_AL_1/0_Brenau_2

New Line.l(r:p13udm30814-p13ulv15716) Units=km Length=0.0124138 bus1=p13udm30814.1.2 bus2=p13ulv15716.1.2 switch=n enabled=y phases=2 Linecode=1P_UG_AL_1/0_Brenau_2

New Line.l(r:p13udm30814-p13udt7135lv) Units=km Length=0.00952694 bus1=p13udt7135lv.1.2 bus2=p13udm30814.1.2 switch=n enabled=y phases=2 Linecode=1P_UG_AL_1/0_Brenau_2

New Line.l(r:p13udm30815-p13ulv15717) Units=km Length=0.0101039 bus1=p13udm30815.1.2 bus2=p13ulv15717.1.2 switch=n enabled=y phases=2 Linecode=1P_UG_AL_1/0_Brenau_2

New Line.l(r:p13udm30818-p13ulv15747) Units=km Length=0.007680000000000001 bus1=p13udm30818.1.2 bus2=p13ulv15747.1.2 switch=n enabled=y phases=2 Linecode=1P_UG_AL_1/0_Brenau_2

New Line.l(r:p13udm30815-p13udm30818) Units=km Length=0.019089 bus1=p13udm30815.1.2 bus2=p13udm30818.1.2 switch=n enabled=y phases=2 Linecode=1P_UG_AL_1/0_Brenau_2

New Line.l(r:p13udm30820-p13ulv95555) Units=km Length=0.013474 bus1=p13udm30820.1.2 bus2=p13ulv95555.1.2 switch=n enabled=y phases=2 Linecode=1P_UG_AL_1/0_Brenau_2

New Line.l(r:p13udm30815-p13udm30820) Units=km Length=0.0390999 bus1=p13udm30815.1.2 bus2=p13udm30820.1.2 switch=n enabled=y phases=2 Linecode=1P_UG_AL_1/0_Brenau_2

New Line.l(r:p13udm30815-p13udt7136lv) Units=km Length=0.00960702 bus1=p13udt7136lv.1.2 bus2=p13udm30815.1.2 switch=n enabled=y phases=2 Linecode=1P_UG_AL_4/0_Sweetbriar_2

New Line.l(r:p13udm30816-p13ulv15718) Units=km Length=0.0121192 bus1=p13udm30816.1.2 bus2=p13ulv15718.1.2 switch=n enabled=y phases=2 Linecode=1P_UG_AL_1/0_Brenau_2

New Line.l(r:p13udm30816-p13ulv95550) Units=km Length=0.00835419 bus1=p13udm30816.1.2 bus2=p13ulv95550.1.2 switch=n enabled=y phases=2 Linecode=1P_UG_AL_1/0_Brenau_2

New Line.l(r:p13udm30817-p13ulv15719) Units=km Length=0.0104389 bus1=p13udm30817.1.2 bus2=p13ulv15719.1.2 switch=n enabled=y phases=2 Linecode=1P_UG_AL_1/0_Brenau_2

New Line.l(r:p13udm30816-p13udm30817) Units=km Length=0.00960852 bus1=p13udm30816.1.2 bus2=p13udm30817.1.2 switch=n enabled=y phases=2 Linecode=1P_UG_AL_1/0_Brenau_2

New Line.l(r:p13udm30816-p13udt7136lv) Units=km Length=0.0096184 bus1=p13udt7136lv.1.2 bus2=p13udm30816.1.2 switch=n enabled=y phases=2 Linecode=1P_UG_AL_2/0_Converse_2

New Line.l(r:p13udt7137lv-p13ulv15728) Units=km Length=0.0135509 bus1=p13udt7137lv.1.2 bus2=p13ulv15728.1.2 switch=n enabled=y phases=2 Linecode=1P_UG_AL_1/0_Brenau_2

New Line.l(r:p13udt7137lv-p13ulv97296) Units=km Length=0.011061 bus1=p13udt7137lv.1.2 bus2=p13ulv97296.1.2 switch=n enabled=y phases=2 Linecode=1P_UG_AL_1/0_Brenau_2

New Line.l(r:p13udm30823-p13ulv15729) Units=km Length=0.0126284 bus1=p13udm30823.1.2 bus2=p13ulv15729.1.2 switch=n enabled=y phases=2 Linecode=1P_UG_AL_1/0_Brenau_2

New Line.l(r:p13udm30825-p13ulv97284) Units=km Length=0.0148075 bus1=p13udm30825.1.2 bus2=p13ulv97284.1.2 switch=n enabled=y phases=2 Linecode=1P_UG_AL_1/0_Brenau_2

New Line.l(r:p13udm30823-p13udm30825) Units=km Length=0.00973559 bus1=p13udm30823.1.2 bus2=p13udm30825.1.2 switch=n enabled=y phases=2 Linecode=1P_UG_AL_1/0_Brenau_2

New Line.l(r:p13udm30823-p13udt7137lv) Units=km Length=0.0097406 bus1=p13udt7137lv.1.2 bus2=p13udm30823.1.2 switch=n enabled=y phases=2 Linecode=1P_UG_AL_1/0_Brenau_2

New Line.l(r:p13udm30824-p13ulv97272) Units=km Length=0.0423847 bus1=p13udm30824.1.2 bus2=p13ulv97272.1.2 switch=n enabled=y phases=2 Linecode=1P_UG_AL_1/0_Brenau_2

New Line.l(r:p13udm30824-p13ulv97288) Units=km Length=0.0126639 bus1=p13udm30824.1.2 bus2=p13ulv97288.1.2 switch=n enabled=y phases=2 Linecode=1P_UG_AL_1/0_Brenau_2

New Line.l(r:p13udm30824-p13ulv97303) Units=km Length=0.011442400000000002 bus1=p13udm30824.1.2 bus2=p13ulv97303.1.2 switch=n enabled=y phases=2 Linecode=1P_UG_AL_1/0_Brenau_2

New Line.l(r:p13udm30821-p13ulv15726) Units=km Length=0.013381 bus1=p13udm30821.1.2 bus2=p13ulv15726.1.2 switch=n enabled=y phases=2 Linecode=1P_UG_AL_1/0_Brenau_2

New Line.l(r:p13udm30821-p13ulv97314) Units=km Length=0.011531400000000002 bus1=p13udm30821.1.2 bus2=p13ulv97314.1.2 switch=n enabled=y phases=2 Linecode=1P_UG_AL_1/0_Brenau_2

New Line.l(r:p13udm30821-p13udm30824) Units=km Length=0.00973559 bus1=p13udm30824.1.2 bus2=p13udm30821.1.2 switch=n enabled=y phases=2 Linecode=1P_UG_AL_4/0_Sweetbriar_2

New Line.l(r:p13udm30824-p13udt7137lv) Units=km Length=0.00973559 bus1=p13udt7137lv.1.2 bus2=p13udm30824.1.2 switch=n enabled=y phases=2 Linecode=1P_UG_AL_4/0_Sweetbriar_2

New Line.l(r:p13udt7138lv-p13ulv97343) Units=km Length=0.0111133 bus1=p13udt7138lv.1.2 bus2=p13ulv97343.1.2 switch=n enabled=y phases=2 Linecode=1P_UG_AL_1/0_Brenau_2

New Line.l(r:p13udm30830-p13ulv15727) Units=km Length=0.0126768 bus1=p13udm30830.1.2 bus2=p13ulv15727.1.2 switch=n enabled=y phases=2 Linecode=1P_UG_AL_1/0_Brenau_2

New Line.l(r:p13udm30830-p13udt7138lv) Units=km Length=0.0194712 bus1=p13udt7138lv.1.2 bus2=p13udm30830.1.2 switch=n enabled=y phases=2 Linecode=1P_UG_AL_1/0_Brenau_2

New Line.l(r:p13udm30831-p13ulv97326) Units=km Length=0.0124531 bus1=p13udm30831.1.2 bus2=p13ulv97326.1.2 switch=n enabled=y phases=2 Linecode=1P_UG_AL_1/0_Brenau_2

New Line.l(r:p13udm30831-p13ulv97341) Units=km Length=0.0123968 bus1=p13udm30831.1.2 bus2=p13ulv97341.1.2 switch=n enabled=y phases=2 Linecode=1P_UG_AL_1/0_Brenau_2

New Line.l(r:p13udm30836-p13ulv97366) Units=km Length=0.0123584 bus1=p13udm30836.1.2 bus2=p13ulv97366.1.2 switch=n enabled=y phases=2 Linecode=1P_UG_AL_1/0_Brenau_2

New Line.l(r:p13udm30831-p13udm30836) Units=km Length=0.0097406 bus1=p13udm30831.1.2 bus2=p13udm30836.1.2 switch=n enabled=y phases=2 Linecode=1P_UG_AL_1/0_Brenau_2

New Line.l(r:p13udm30831-p13udt7138lv) Units=km Length=0.00973559 bus1=p13udt7138lv.1.2 bus2=p13udm30831.1.2 switch=n enabled=y phases=2 Linecode=1P_UG_AL_4/0_Sweetbriar_2

New Line.l(r:p13udm30832-p13ulv97327) Units=km Length=0.0107099 bus1=p13udm30832.1.2 bus2=p13ulv97327.1.2 switch=n enabled=y phases=2 Linecode=1P_UG_AL_4/0_Sweetbriar_2

New Line.l(r:p13udm30832-p13ulv97359) Units=km Length=0.0336223 bus1=p13udm30832.1.2 bus2=p13ulv97359.1.2 switch=n enabled=y phases=2 Linecode=1P_UG_AL_1/0_Brenau_2

New Line.l(r:p13udm30832-p13udt7138lv) Units=km Length=0.00973559 bus1=p13udt7138lv.1.2 bus2=p13udm30832.1.2 switch=n enabled=y phases=2 Linecode=1P_UG_AL_4/0_Sweetbriar_2

New Line.l(r:p13udt7139lv-p13ulv15730) Units=km Length=0.0122894 bus1=p13udt7139lv.1.2 bus2=p13ulv15730.1.2 switch=n enabled=y phases=2 Linecode=1P_UG_AL_1/0_Brenau_2

New Line.l(r:p13udt7139lv-p13ulv97270) Units=km Length=0.017723 bus1=p13udt7139lv.1.2 bus2=p13ulv97270.1.2 switch=n enabled=y phases=2 Linecode=1P_UG_AL_4/0_Sweetbriar_2

New Line.l(r:p13udm30839-p13ulv15731) Units=km Length=0.01381 bus1=p13udm30839.1.2 bus2=p13ulv15731.1.2 switch=n enabled=y phases=2 Linecode=1P_UG_AL_1/0_Brenau_2

New Line.l(r:p13udm30839-p13ulv97186) Units=km Length=0.0066028300000000005 bus1=p13udm30839.1.2 bus2=p13ulv97186.1.2 switch=n enabled=y phases=2 Linecode=1P_UG_AL_1/0_Brenau_2

New Line.l(r:p13udm30839-p13udt7140lv) Units=km Length=0.00973559 bus1=p13udt7140lv.1.2 bus2=p13udm30839.1.2 switch=n enabled=y phases=2 Linecode=1P_UG_AL_4/0_Sweetbriar_2

New Line.l(r:p13udm30840-p13ulv97178) Units=km Length=0.0142171 bus1=p13udm30840.1.2 bus2=p13ulv97178.1.2 switch=n enabled=y phases=2 Linecode=1P_UG_AL_1/0_Brenau_2

New Line.l(r:p13udm30840-p13udt7140lv) Units=km Length=0.00973559 bus1=p13udt7140lv.1.2 bus2=p13udm30840.1.2 switch=n enabled=y phases=2 Linecode=1P_UG_AL_1/0_Brenau_2

New Line.l(r:p13udm30847-p13ulv99043) Units=km Length=0.0104823 bus1=p13udm30847.1.2 bus2=p13ulv99043.1.2 switch=n enabled=y phases=2 Linecode=1P_UG_AL_1/0_Brenau_2

New Line.l(r:p13udm30845-p13ulv99015) Units=km Length=0.0104103 bus1=p13udm30845.1.2 bus2=p13ulv99015.1.2 switch=n enabled=y phases=2 Linecode=1P_UG_AL_1/0_Brenau_2

New Line.l(r:p13udm30844-p13ulv98998) Units=km Length=0.0133023 bus1=p13udm30844.1.2 bus2=p13ulv98998.1.2 switch=n enabled=y phases=2 Linecode=1P_UG_AL_1/0_Brenau_2

New Line.l(r:p13udm30843-p13ulv98987) Units=km Length=0.013351000000000002 bus1=p13udm30843.1.2 bus2=p13ulv98987.1.2 switch=n enabled=y phases=2 Linecode=1P_UG_AL_1/0_Brenau_2

New Line.l(r:p13udm30843-p13udm30844) Units=km Length=0.00963596 bus1=p13udm30844.1.2 bus2=p13udm30843.1.2 switch=n enabled=y phases=2 Linecode=1P_UG_AL_1/0_Brenau_2

New Line.l(r:p13udm30844-p13udm30845) Units=km Length=0.00964541 bus1=p13udm30845.1.2 bus2=p13udm30844.1.2 switch=n enabled=y phases=2 Linecode=1P_UG_AL_1/0_Brenau_2

New Line.l(r:p13udm30845-p13udm30847) Units=km Length=0.0096327 bus1=p13udm30847.1.2 bus2=p13udm30845.1.2 switch=n enabled=y phases=2 Linecode=1P_UG_AL_4/0_Sweetbriar_2

New Line.l(r:p13udm30847-p13udt7141lv) Units=km Length=0.00964541 bus1=p13udt7141lv.1.2 bus2=p13udm30847.1.2 switch=n enabled=y phases=2 Linecode=1P_UG_AL_4/0_Sweetbriar_2

New Line.l(r:p13udm30848-p13ulv99052) Units=km Length=0.00975304 bus1=p13udm30848.1.2 bus2=p13ulv99052.1.2 switch=n enabled=y phases=2 Linecode=1P_UG_AL_1/0_Brenau_2

New Line.l(r:p13udm30846-p13ulv99041) Units=km Length=0.00833022 bus1=p13udm30846.1.2 bus2=p13ulv99041.1.2 switch=n enabled=y phases=2 Linecode=1P_UG_AL_1/0_Brenau_2

New Line.l(r:p13udm30846-p13ulv99075) Units=km Length=0.00986198 bus1=p13udm30846.1.2 bus2=p13ulv99075.1.2 switch=n enabled=y phases=2 Linecode=1P_UG_AL_1/0_Brenau_2

New Line.l(r:p13udm30842-p13ulv15732) Units=km Length=0.0131938 bus1=p13udm30842.1.2 bus2=p13ulv15732.1.2 switch=n enabled=y phases=2 Linecode=1P_UG_AL_1/0_Brenau_2

New Line.l(r:p13udm30842-p13udm30846) Units=km Length=0.0197179 bus1=p13udm30846.1.2 bus2=p13udm30842.1.2 switch=n enabled=y phases=2 Linecode=1P_UG_AL_1/0_Brenau_2

New Line.l(r:p13udm30846-p13udm30848) Units=km Length=0.019123 bus1=p13udm30848.1.2 bus2=p13udm30846.1.2 switch=n enabled=y phases=2 Linecode=1P_UG_AL_4/0_Sweetbriar_2

New Line.l(r:p13udm30848-p13udt7141lv) Units=km Length=0.00963596 bus1=p13udt7141lv.1.2 bus2=p13udm30848.1.2 switch=n enabled=y phases=2 Linecode=1P_UG_AL_4/0_Sweetbriar_2

New Line.l(r:p13udt7142lv-p13ulv15733) Units=km Length=0.0243442 bus1=p13udt7142lv.1.2 bus2=p13ulv15733.1.2 switch=n enabled=y phases=2 Linecode=1P_UG_AL_1/0_Brenau_2

New Line.l(r:p13udm30851-p13ulv98959) Units=km Length=0.0143973 bus1=p13udm30851.1.2 bus2=p13ulv98959.1.2 switch=n enabled=y phases=2 Linecode=1P_UG_AL_4/0_Sweetbriar_2

New Line.l(r:p13udm30851-p13udt7142lv) Units=km Length=0.00944327 bus1=p13udt7142lv.1.2 bus2=p13udm30851.1.2 switch=n enabled=y phases=2 Linecode=1P_UG_AL_4/0_Sweetbriar_2

New Line.l(r:p13udm30852-p13ulv98992) Units=km Length=0.0172605 bus1=p13udm30852.1.2 bus2=p13ulv98992.1.2 switch=n enabled=y phases=2 Linecode=1P_UG_AL_1/0_Brenau_2

New Line.l(r:p13udm30852-p13udt7142lv) Units=km Length=0.00944327 bus1=p13udt7142lv.1.2 bus2=p13udm30852.1.2 switch=n enabled=y phases=2 Linecode=1P_UG_AL_1/0_Brenau_2

New Line.l(r:p13udt7143lv-p13ulv99001) Units=km Length=0.014284000000000002 bus1=p13udt7143lv.1.2 bus2=p13ulv99001.1.2 switch=n enabled=y phases=2 Linecode=1P_UG_AL_4/0_Sweetbriar_2

New Line.l(r:p13udt7143lv-p13ulv99016) Units=km Length=0.0165538 bus1=p13udt7143lv.1.2 bus2=p13ulv99016.1.2 switch=n enabled=y phases=2 Linecode=1P_UG_AL_4/0_Sweetbriar_2

New Line.l(r:p13udt7143lv-p13ulv99050) Units=km Length=0.0131406 bus1=p13udt7143lv.1.2 bus2=p13ulv99050.1.2 switch=n enabled=y phases=2 Linecode=1P_UG_AL_1/0_Brenau_2

New Line.l(r:p13udm30853-p13ulv15734) Units=km Length=0.013431500000000002 bus1=p13udm30853.1.2 bus2=p13ulv15734.1.2 switch=n enabled=y phases=2 Linecode=1P_UG_AL_1/0_Brenau_2

New Line.l(r:p13udm30853-p13udt7143lv) Units=km Length=0.00943823 bus1=p13udt7143lv.1.2 bus2=p13udm30853.1.2 switch=n enabled=y phases=2 Linecode=1P_UG_AL_1/0_Brenau_2

New Line.l(r:p13udt7144lv-p13ulv99083) Units=km Length=0.013507300000000002 bus1=p13udt7144lv.1.2 bus2=p13ulv99083.1.2 switch=n enabled=y phases=2 Linecode=1P_UG_AL_2/0_Converse_2

New Line.l(r:p13udm30857-p13ulv15735) Units=km Length=0.0104247 bus1=p13udm30857.1.2 bus2=p13ulv15735.1.2 switch=n enabled=y phases=2 Linecode=1P_UG_AL_1/0_Brenau_2

New Line.l(r:p13udm30857-p13ulv99044) Units=km Length=0.0131925 bus1=p13udm30857.1.2 bus2=p13ulv99044.1.2 switch=n enabled=y phases=2 Linecode=1P_UG_AL_2/0_Converse_2

New Line.l(r:p13udm30857-p13udt7144lv) Units=km Length=0.00944327 bus1=p13udt7144lv.1.2 bus2=p13udm30857.1.2 switch=n enabled=y phases=2 Linecode=1P_UG_AL_4/0_Sweetbriar_2

New Line.l(r:p13udt7145lv-p13ulv95616) Units=km Length=0.0083935 bus1=p13udt7145lv.1.2 bus2=p13ulv95616.1.2 switch=n enabled=y phases=2 Linecode=1P_UG_AL_4/0_Sweetbriar_2

New Line.l(r:p13udm30860-p13ulv15736) Units=km Length=0.0148928 bus1=p13udm30860.1.2 bus2=p13ulv15736.1.2 switch=n enabled=y phases=2 Linecode=1P_UG_AL_2/0_Converse_2

New Line.l(r:p13udm30860-p13ulv15791) Units=km Length=0.00878562 bus1=p13udm30860.1.2 bus2=p13ulv15791.1.2 switch=n enabled=y phases=2 Linecode=1P_UG_AL_1/0_Brenau_2

New Line.l(r:p13udm30860-p13udt7145lv) Units=km Length=0.00963632 bus1=p13udt7145lv.1.2 bus2=p13udm30860.1.2 switch=n enabled=y phases=2 Linecode=1P_UG_AL_4/0_Sweetbriar_2

New Line.l(r:p13udm30861-p13ulv15737) Units=km Length=0.0118614 bus1=p13udm30861.1.2 bus2=p13ulv15737.1.2 switch=n enabled=y phases=2 Linecode=1P_UG_AL_1/0_Brenau_2

New Line.l(r:p13udm30862-p13ulv15739) Units=km Length=0.00982866 bus1=p13udm30862.1.2 bus2=p13ulv15739.1.2 switch=n enabled=y phases=2 Linecode=1P_UG_AL_1/0_Brenau_2

New Line.l(r:p13udm30861-p13udm30862) Units=km Length=0.0168872 bus1=p13udm30861.1.2 bus2=p13udm30862.1.2 switch=n enabled=y phases=2 Linecode=1P_UG_AL_1/0_Brenau_2

New Line.l(r:p13udm30861-p13udt7145lv) Units=km Length=0.00964 bus1=p13udt7145lv.1.2 bus2=p13udm30861.1.2 switch=n enabled=y phases=2 Linecode=1P_UG_AL_2/0_Converse_2

New Line.l(r:p13udt7146lv-p13ulv15740) Units=km Length=0.0136556 bus1=p13udt7146lv.1.2 bus2=p13ulv15740.1.2 switch=n enabled=y phases=2 Linecode=1P_OH_AL_2/0_Rucina_2

New Line.l(r:p13udt7146lv-p13ulv15744) Units=km Length=0.0344587 bus1=p13udt7146lv.1.2 bus2=p13ulv15744.1.2 switch=n enabled=y phases=2 Linecode=1P_OH_AL_4/0_Zuzara_2

New Line.l(r:p13udm30866-p13ulv15741) Units=km Length=0.012622100000000002 bus1=p13udm30866.1.2 bus2=p13ulv15741.1.2 switch=n enabled=y phases=2 Linecode=1P_OH_AL_2/0_Rucina_2

New Line.l(r:p13udm30866-p13ulv15743) Units=km Length=0.0308037 bus1=p13udm30866.1.2 bus2=p13ulv15743.1.2 switch=n enabled=y phases=2 Linecode=1P_OH_AL_4/0_Zuzara_2

New Line.l(r:p13udm30866-p13udt7146lv) Units=km Length=0.019450200000000004 bus1=p13udt7146lv.1.2 bus2=p13udm30866.1.2 switch=n enabled=y phases=2 Linecode=1P_OH_AL_2/0_Rucina_2

New Line.l(r:p13udm30869-p13ulv95627) Units=km Length=0.00934362 bus1=p13udm30869.1.2 bus2=p13ulv95627.1.2 switch=n enabled=y phases=2 Linecode=1P_UG_AL_1/0_Brenau_2

New Line.l(r:p13udm30869-p13ulv95636) Units=km Length=0.0112048 bus1=p13udm30869.1.2 bus2=p13ulv95636.1.2 switch=n enabled=y phases=2 Linecode=1P_UG_AL_1/0_Brenau_2

New Line.l(r:p13udm30869-p13udt7146lv) Units=km Length=0.0188313 bus1=p13udt7146lv.1.2 bus2=p13udm30869.1.2 switch=n enabled=y phases=2 Linecode=1P_OH_AL_2/0_Rucina_2

New Line.l(r:p13udt7147lv-p13ulv15742) Units=km Length=0.0162906 bus1=p13udt7147lv.1.2 bus2=p13ulv15742.1.2 switch=n enabled=y phases=2 Linecode=1P_OH_AL_2/0_Rucina_2

New Line.l(r:p13udt7147lv-p13ulv15750) Units=km Length=0.0186492 bus1=p13udt7147lv.1.2 bus2=p13ulv15750.1.2 switch=n enabled=y phases=2 Linecode=1P_OH_AL_2/0_Rucina_2

New Line.l(r:p13udt7147lv-p13ulv95643) Units=km Length=0.0147156 bus1=p13udt7147lv.1.2 bus2=p13ulv95643.1.2 switch=n enabled=y phases=2 Linecode=1P_OH_AL_2/0_Rucina_2

New Line.l(r:p13udm30873-p13ulv95626) Units=km Length=0.0103279 bus1=p13udm30873.1.2 bus2=p13ulv95626.1.2 switch=n enabled=y phases=2 Linecode=1P_OH_AL_2/0_Rucina_2

New Line.l(r:p13udm30873-p13ulv95641) Units=km Length=0.0135562 bus1=p13udm30873.1.2 bus2=p13ulv95641.1.2 switch=n enabled=y phases=2 Linecode=1P_OH_AL_2/0_Rucina_2

New Line.l(r:p13udm30873-p13udt7147lv) Units=km Length=0.019450200000000004 bus1=p13udt7147lv.1.2 bus2=p13udm30873.1.2 switch=n enabled=y phases=2 Linecode=1P_OH_AL_2/0_Rucina_2

New Line.l(r:p13udt7148lv-p13ulv15745) Units=km Length=0.013539000000000002 bus1=p13udt7148lv.1.2 bus2=p13ulv15745.1.2 switch=n enabled=y phases=2 Linecode=1P_UG_AL_1/0_Brenau_2

New Line.l(r:p13udm30877-p13ulv95571) Units=km Length=0.0139743 bus1=p13udm30877.1.2 bus2=p13ulv95571.1.2 switch=n enabled=y phases=2 Linecode=1P_UG_AL_1/0_Brenau_2

New Line.l(r:p13udm30877-p13ulv95607) Units=km Length=0.0156277 bus1=p13udm30877.1.2 bus2=p13ulv95607.1.2 switch=n enabled=y phases=2 Linecode=1P_UG_AL_1/0_Brenau_2

New Line.l(r:p13udm30877-p13udt7148lv) Units=km Length=0.019262700000000004 bus1=p13udt7148lv.1.2 bus2=p13udm30877.1.2 switch=n enabled=y phases=2 Linecode=1P_UG_AL_1/0_Brenau_2

New Line.l(r:p13udm30879-p13ulv95586) Units=km Length=0.0124297 bus1=p13udm30879.1.2 bus2=p13ulv95586.1.2 switch=n enabled=y phases=2 Linecode=1P_UG_AL_1/0_Brenau_2

New Line.l(r:p13udm30878-p13ulv95573) Units=km Length=0.008916870000000002 bus1=p13udm30878.1.2 bus2=p13ulv95573.1.2 switch=n enabled=y phases=2 Linecode=1P_UG_AL_1/0_Brenau_2

New Line.l(r:p13udm30878-p13udm30879) Units=km Length=0.00963133 bus1=p13udm30879.1.2 bus2=p13udm30878.1.2 switch=n enabled=y phases=2 Linecode=1P_UG_AL_1/0_Brenau_2

New Line.l(r:p13udm30879-p13udt7148lv) Units=km Length=0.00963133 bus1=p13udt7148lv.1.2 bus2=p13udm30879.1.2 switch=n enabled=y phases=2 Linecode=1P_UG_AL_2/0_Converse_2

New Line.l(r:p13udt7149lv-p13ulv95553) Units=km Length=0.00789953 bus1=p13udt7149lv.1.2 bus2=p13ulv95553.1.2 switch=n enabled=y phases=2 Linecode=1P_UG_AL_1/0_Brenau_2

New Line.l(r:p13udm30882-p13ulv95531) Units=km Length=0.00943709 bus1=p13udm30882.1.2 bus2=p13ulv95531.1.2 switch=n enabled=y phases=2 Linecode=1P_UG_AL_1/0_Brenau_2

...