voltage-tiling/data/p13u_violations/p13uhs5_1247--p13udt7430/Loads.dss
New Load.load_p13ulv3440_1 conn=wye bus1=p13ulv3440.1 kV=0.12 Vminpu=0.8 Vmaxpu=1.2 model=1 kW=4.055766634676983 kvar=1.199977165248086 Phases=1 yearly=com_kw_19714_pu

New Load.load_p13ulv3440_2 conn=wye bus1=p13ulv3440.2 kV=0.12 Vminpu=0.8 Vmaxpu=1.2 model=1 kW=4.055766634676983 kvar=1.199977165248086 Phases=1 yearly=com_kw_19714_pu

New Load.load_p13ulv3441_1 conn=wye bus1=p13ulv3441.1 kV=0.12 Vminpu=0.8 Vmaxpu=1.2 model=1 kW=5.352305861788737 kvar=1.078614934399192 Phases=1 yearly=res_kw_2503_pu

New Load.load_p13ulv3441_2 conn=wye bus1=p13ulv3441.2 kV=0.12 Vminpu=0.8 Vmaxpu=1.2 model=1 kW=5.352305861788737 kvar=1.078614934399192 Phases=1 yearly=res_kw_2503_pu

New Load.load_p13ulv3442 conn=wye bus1=p13ulv3442.1.2.3 kV=0.48 Vminpu=0.8 Vmaxpu=1.2 model=1 kW=67.33607444645513 kvar=25.45026703266676 Phases=3 yearly=res_kw_944_pu

New Load.load_p13ulv3443 conn=wye bus1=p13ulv3443.1.2.3 kV=0.48 Vminpu=0.8 Vmaxpu=1.2 model=1 kW=22.476147195409453 kvar=6.180374655659762 Phases=3 yearly=com_kw_39998_pu

New Load.load_p13ulv3444 conn=wye bus1=p13ulv3443.1.2.3 kV=0.48 Vminpu=0.8 Vmaxpu=1.2 model=1 kW=24.209120388106733 kvar=6.512500785618637 Phases=3 yearly=com_kw_19420_pu

New Load.load_p13ulv3445 conn=wye bus1=p13ulv3445.1.2.3 kV=0.48 Vminpu=0.8 Vmaxpu=1.2 model=1 kW=43.26522971706406 kvar=11.650804405281649 Phases=3 yearly=com_kw_35603_pu

New Load.load_p13ulv3446_1 conn=wye bus1=p13ulv3446.1 kV=0.12 Vminpu=0.8 Vmaxpu=1.2 model=1 kW=6.694721426154383 kvar=1.5769028070080264 Phases=1 yearly=com_kw_1667_pu

New Load.load_p13ulv3446_2 conn=wye bus1=p13ulv3446.2 kV=0.12 Vminpu=0.8 Vmaxpu=1.2 model=1 kW=6.694721426154383 kvar=1.5769028070080264 Phases=1 yearly=com_kw_1667_pu

New Load.load_p13ulv3447_1 conn=wye bus1=p13ulv3447.1 kV=0.12 Vminpu=0.8 Vmaxpu=1.2 model=1 kW=4.487592234346106 kvar=0.992497438289527 Phases=1 yearly=res_kw_10783_pu

New Load.load_p13ulv3447_2 conn=wye bus1=p13ulv3447.2 kV=0.12 Vminpu=0.8 Vmaxpu=1.2 model=1 kW=4.487592234346106 kvar=0.992497438289527 Phases=1 yearly=res_kw_10783_pu

New Load.load_p13ulv3448_1 conn=wye bus1=p13ulv3448.1 kV=0.12 Vminpu=0.8 Vmaxpu=1.2 model=1 kW=5.675652808285769 kvar=1.093081053561056 Phases=1 yearly=res_kw_3226_pu

New Load.load_p13ulv3448_2 conn=wye bus1=p13ulv3448.2 kV=0.12 Vminpu=0.8 Vmaxpu=1.2 model=1 kW=5.675652808285769 kvar=1.093081053561056 Phases=1 yearly=res_kw_3226_pu

New Load.load_p13ulv3450_1 conn=wye bus1=p13ulv3450.1 kV=0.12 Vminpu=0.8 Vmaxpu=1.2 model=1 kW=22.12280202516119 kvar=4.492669783950823 Phases=1 yearly=res_kw_8421_pu

New Load.load_p13ulv3450_2 conn=wye bus1=p13ulv3450.2 kV=0.12 Vminpu=0.8 Vmaxpu=1.2 model=1 kW=22.12280202516119 kvar=4.492669783950823 Phases=1 yearly=res_kw_8421_pu

New Load.load_p13ulv3451_1 conn=wye bus1=p13ulv3451.1 kV=0.12 Vminpu=0.8 Vmaxpu=1.2 model=1 kW=14.060573621285993 kvar=2.8459415620610193 Phases=1 yearly=res_kw_9973_pu

New Load.load_p13ulv3451_2 conn=wye bus1=p13ulv3451.2 kV=0.12 Vminpu=0.8 Vmaxpu=1.2 model=1 kW=14.060573621285993 kvar=2.8459415620610193 Phases=1 yearly=res_kw_9973_pu

New Load.load_p13ulv3452_1 conn=wye bus1=p13ulv3452.1 kV=0.12 Vminpu=0.8 Vmaxpu=1.2 model=1 kW=6.14542435819429 kvar=2.4953572453172748 Phases=1 yearly=res_kw_10355_pu

New Load.load_p13ulv3452_2 conn=wye bus1=p13ulv3452.2 kV=0.12 Vminpu=0.8 Vmaxpu=1.2 model=1 kW=6.14542435819429 kvar=2.4953572453172748 Phases=1 yearly=res_kw_10355_pu

New Load.load_p13ulv3453_1 conn=wye bus1=p13ulv3453.1 kV=0.12 Vminpu=0.8 Vmaxpu=1.2 model=1 kW=6.500451495129185 kvar=1.5330076729587747 Phases=1 yearly=com_kw_41364_pu

New Load.load_p13ulv3453_2 conn=wye bus1=p13ulv3453.2 kV=0.12 Vminpu=0.8 Vmaxpu=1.2 model=1 kW=6.500451495129185 kvar=1.5330076729587747 Phases=1 yearly=com_kw_41364_pu

New Load.load_p13ulv3454_1 conn=wye bus1=p13ulv3454.1 kV=0.12 Vminpu=0.8 Vmaxpu=1.2 model=1 kW=10.779671606476295 kvar=0.6812152242328302 Phases=1 yearly=com_kw_17600_pu

New Load.load_p13ulv3454_2 conn=wye bus1=p13ulv3454.2 kV=0.12 Vminpu=0.8 Vmaxpu=1.2 model=1 kW=10.779671606476295 kvar=0.6812152242328302 Phases=1 yearly=com_kw_17600_pu

New Load.load_p13ulv3455_1 conn=wye bus1=p13ulv3455.1 kV=0.12 Vminpu=0.8 Vmaxpu=1.2 model=1 kW=4.237064396976419 kvar=0.25029256707639685 Phases=1 yearly=com_kw_1949_pu

New Load.load_p13ulv3455_2 conn=wye bus1=p13ulv3455.2 kV=0.12 Vminpu=0.8 Vmaxpu=1.2 model=1 kW=4.237064396976419 kvar=0.25029256707639685 Phases=1 yearly=com_kw_1949_pu

New Load.load_p13ulv3456_1 conn=wye bus1=p13ulv3456.1 kV=0.12 Vminpu=0.8 Vmaxpu=1.2 model=1 kW=4.298732967846568 kvar=1.4010470651986036 Phases=1 yearly=res_kw_8466_pu

New Load.load_p13ulv3456_2 conn=wye bus1=p13ulv3456.2 kV=0.12 Vminpu=0.8 Vmaxpu=1.2 model=1 kW=4.298732967846568 kvar=1.4010470651986036 Phases=1 yearly=res_kw_8466_pu

New Load.load_p13ulv3457_1 conn=wye bus1=p13ulv3457.1 kV=0.12 Vminpu=0.8 Vmaxpu=1.2 model=1 kW=4.013992703229786 kvar=0.0951464885764126 Phases=1 yearly=res_kw_6166_pu

...